Circuit: * Z:\Desktop\github\DasBlinkinput\LTSpice\DasBlinkinput.asc

Direct Newton iteration failed to find .op point.  (Use ".option noopiter" to skip.)
Starting Gmin stepping
Gmin = 10
Gmin = 1.07374
Gmin = 0.115292
Gmin = 0.0123794
Gmin = 0.00132923
Gmin = 0.000142725
Gmin = 1.5325e-005
Gmin = 1.6455e-006
Gmin = 1.76685e-007
Gmin = 1.89714e-008
Gmin = 2.03704e-009
Gmin = 2.18725e-010
Gmin = 2.34854e-011
Gmin = 2.52173e-012
Gmin = 2.70769e-013
Gmin = 0
Gmin stepping succeeded in finding the operating point.


Date: Thu Nov 10 08:15:36 2016
Total elapsed time: 0.104 seconds.

tnom = 27
temp = 27
method = modified trap
totiter = 4791
traniter = 4351
tranpoints = 1632
accept = 1485
rejected = 147
matrix size = 19
fillins = 9
solver = Normal
Thread vector: 11.9/8.3[2] 2.7/1.5[2] 2.4/2.3[1] 0.3/0.7[1]  2592/500
Matrix Compiler1: 1.33 KB object code size  0.6/0.4/[0.3]
Matrix Compiler2: 1.90 KB object code size  0.4/0.6/[0.3]


