Circuit: * Z:\Desktop\github\DasBlinkinput\LTSpice\opamp-test.asc

Instance "m:u2:14": Length shorter than recommended for a level 1 MOSFET.
Instance "m:u2:12": Length shorter than recommended for a level 1 MOSFET.
Direct Newton iteration failed to find .op point.  (Use ".option noopiter" to skip.)
Starting Gmin stepping
Increasing initial diagonal Gmin to 100
Increasing initial diagonal Gmin to 1000
Gmin = 1000
Gmin = 107.374
Gmin = 11.5292
Gmin = 1.23794
Gmin = 0.132923
Gmin = 0.0142725
Gmin = 0.0015325
Gmin = 0.00016455
Gmin = 1.76685e-005
Gmin = 1.89714e-006
Gmin = 2.03704e-007
Gmin = 2.18725e-008
Gmin = 2.34854e-009
Gmin = 2.52173e-010
Gmin = 2.70769e-011
Gmin = 2.90735e-012
Gmin = 3.12175e-013
Gmin = 0
Gmin stepping succeeded in finding the operating point.


Date: Fri Jan 27 12:19:20 2017
Total elapsed time: 0.091 seconds.

tnom = 27
temp = 27
method = modified trap
totiter = 2772
traniter = 2143
tranpoints = 1067
accept = 1056
rejected = 11
matrix size = 53
fillins = 40
solver = Normal
Thread vector: 11.8/6.8[2] 1.8/1.5[2] 5.0/3.6[2] 0.5/0.9[1]  2592/500
Matrix Compiler1: 3.38 KB object code size  1.0/0.5/[0.4]
Matrix Compiler2: 4.66 KB object code size  0.7/0.8/[0.6]


